power-flow-agent/results/ieee14/2026-09-21/gpt-4o-mini/single_call_structured/traces/36_case14-plain-020-s0.transcript.txt
==============================================================================
TRANSCRIPT  single_call:structured  |  openrouter:openai/gpt-4o-mini  |  case14  |  case14-plain-020-s0  run 0
==============================================================================
date: 2026-09-21   seed: 0   difficulty: plain   tool variant: load_split

[system]   (hash 23e5d9b407f9, from methods/single_call_structured/method.json prompt_files)
You are a power system power-flow analysis assistant. You help the user complete power system analysis tasks from natural-language requests.

## What you can do
You complete tasks by calling tool functions:
1. Load an IEEE standard test system (14, 30, 57, 118, 300 buses)
2. Run AC power flow
3. Modify the load at a bus and re-solve
4. Disconnect or reconnect a line and re-solve
5. Query the network status
6. Run an N-1 contingency analysis (disconnect branches one at a time and rank the worst cases)
7. Generate remedial-action suggestions (what-if load shedding or voltage adjustment) to reduce violation risk

## Key rules
- Never fabricate any numerical result. Every voltage, power, loss, or loading value must come from a tool return value.
- If a tool reports an error or a non-converged power flow, say so explicitly and do not report numbers for that state.
- If the request is ambiguous, state the interpretation you are using.
- Bus and line identifiers in the request are MATPOWER 1-based ids; pass them to the tools as given, unless the request itself states a different indexing convention for that identifier (e.g. "(0-based)"), in which case convert it to the MATPOWER 1-based id before calling any tool.
- After a network modification, re-solve before reporting any value.
- Always reply in English.

## Reply format
After each analysis, reply in this structure:
1. One-sentence summary
2. Key numbers (total load, total generation, total losses, voltage range) taken from the tool outputs
3. Violations, if any
4. Suggested next step

## Single-call mode
You are evaluated in single-call mode: the network named in the user message is already loaded. Read the request, decide which tools to call and with which arguments, and emit all tool calls in this one response. Do not ask clarifying questions, do not plan across turns, and do not fabricate numbers.

[user]   (complete message, rebuilt offline from the same case, seed and prompt code; the request is under '## Task')
The network case14 is loaded. Use the tools to fulfil the request below.

## System Data (compact, full case)
Case case14: 14 buses, 15 lines, 5 transformers, total load 264.8 MW. Bus ids are IEEE display ids (1..N); line_id is the net.line row index, transformers use 100000+row index.

### Buses
bus 1 | 135 kV | slack/reference vm 1.06 pu
bus 2 | 135 kV | load 22.23 MW 13.01 Mvar | gen 38.74 MW vm 1.045 pu
bus 3 | 135 kV | load 93.54 MW 18.87 Mvar | gen 0 MW vm 1.01 pu
bus 4 | 135 kV | load 52.19 MW -4.258 Mvar
bus 5 | 135 kV | load 7.759 MW 1.633 Mvar
bus 6 | 0.208 kV | load 10.94 MW 7.323 Mvar | gen 0 MW vm 1.07 pu
bus 7 | 14 kV
bus 8 | 12 kV | gen 0 MW vm 1.09 pu
bus 9 | 0.208 kV | load 29.09 MW 16.37 Mvar
bus 10 | 0.208 kV | load 9.51 MW 6.129 Mvar
bus 11 | 0.208 kV | load 3.541 MW 1.821 Mvar
bus 12 | 0.208 kV | load 5.667 MW 1.487 Mvar
bus 13 | 0.208 kV | load 14.68 MW 6.308 Mvar
bus 14 | 0.208 kV | load 15.61 MW 5.24 Mvar

### Branches
line 0 | 1-2 | r 3.532 x 10.78 ohm/km | len 1 km | max_i 42.34 kA
line 1 | 1-5 | r 9.847 x 40.65 ohm/km | len 1 km | max_i 42.34 kA
line 2 | 2-3 | r 8.564 x 36.08 ohm/km | len 1 km | max_i 42.34 kA
line 3 | 2-4 | r 10.59 x 32.13 ohm/km | len 1 km | max_i 42.34 kA
line 4 | 2-5 | r 10.38 x 31.69 ohm/km | len 1 km | max_i 42.34 kA
line 5 | 3-4 | r 12.21 x 31.17 ohm/km | len 1 km | max_i 42.34 kA
line 6 | 4-5 | r 2.433 x 7.675 ohm/km | len 1 km | max_i 42.34 kA
line 7 | 6-11 | r 4.109e-05 x 8.605e-05 ohm/km | len 1 km | max_i 2.748e+04 kA
line 8 | 6-12 | r 5.318e-05 x 0.0001107 ohm/km | len 1 km | max_i 2.748e+04 kA
line 9 | 6-13 | r 2.862e-05 x 5.636e-05 ohm/km | len 1 km | max_i 2.748e+04 kA
line 10 | 9-10 | r 1.376e-05 x 3.656e-05 ohm/km | len 1 km | max_i 2.748e+04 kA
line 11 | 9-14 | r 5.499e-05 x 0.000117 ohm/km | len 1 km | max_i 2.748e+04 kA
line 12 | 10-11 | r 3.55e-05 x 8.31e-05 ohm/km | len 1 km | max_i 2.748e+04 kA
line 13 | 12-13 | r 9.558e-05 x 8.648e-05 ohm/km | len 1 km | max_i 2.748e+04 kA
line 14 | 13-14 | r 7.395e-05 x 0.0001506 ohm/km | len 1 km | max_i 2.748e+04 kA
trafo 100000 | 4-7 | sn 9900 MVA | vk 2070 % | 135/14 kV
trafo 100001 | 4-9 | sn 9900 MVA | vk 5506 % | 135/0.208 kV
trafo 100002 | 5-6 | sn 9900 MVA | vk 2495 % | 135/0.208 kV
trafo 100003 | 7-8 | sn 9900 MVA | vk 1744 % | 14/12 kV
trafo 100004 | 7-9 | sn 9900 MVA | vk 1089 % | 14/0.208 kV

### Available tools
- load_case(case_name): Load IEEE test case.
- run_powerflow(no arguments): Run power flow on current case.
- modify_load(bus_id, p_mw, q_mvar): Modify bus load and recompute.
- disconnect_line(from_bus, to_bus): Disconnect line/branch between two buses and recompute.
- reconnect_line(from_bus, to_bus): Reconnect line/branch between two buses and recompute.
- get_most_loaded_branch(no arguments): Get most loaded branch.
- run_n1_contingency(top_k, criteria, max_candidates): Run N-1 contingency analysis.
- recommend_remedial_actions(max_actions, allow_load_shed, allow_voltage_control, include_best_comparison): Recommend remedial actions.
- apply_remedial_action(action_index, confirmed): Apply one remedial action by index.
- get_status(no arguments): Get current network status.
- generate_plot(plot_type): Generate one plot.

## Task
Load the 14-bus test case (case14) and run the power flow, then report the bus with the lowest voltage magnitude.

## Output Requirements
Answer by emitting tool calls (function calling) in THIS single response:
- Use only the provided tools, with their exact names and argument names.
- Emit every tool call the request needs, in execution order, in one round; there is no second turn and no memory of earlier turns.
- bus_id / from_bus / to_bus are IEEE display ids (1..N), as printed in the system data.
- Never invent numerical results; numbers come only from tool outputs.
- If the request needs a case other than the loaded one, call load_case first.

[tools available to the model]   (function-calling schema, --tool-variant load_split; enum values and defaults as sent)
  load_case(case_name: string* in {case14, case30, case57, case118, case300})  Load IEEE test case.
  run_powerflow()  Run power flow on current case.
  disconnect_line(from_bus: integer*, to_bus: integer*)  Disconnect line/branch between two buses and recompute.
  reconnect_line(from_bus: integer*, to_bus: integer*)  Reconnect line/branch between two buses and recompute.
  get_most_loaded_branch()  Get most loaded branch.
  run_n1_contingency(top_k: integer (default 5), criteria: string in {max_violations, max_overload, min_voltage} (default max_violations), max_candidates: integer (default 0))  Run N-1 contingency analysis.
  recommend_remedial_actions(max_actions: integer (default 5), allow_load_shed: boolean (default True), allow_voltage_control: boolean (default True), include_best_comparison: boolean (default True))  Recommend remedial actions.
  apply_remedial_action(action_index: integer*, confirmed: boolean (default False))  Apply one remedial action by index.
  get_status()  Get current network status.
  generate_plot(plot_type: string* in {voltage_heatmap, flow_diagram, violation_overview, comparison})  Generate one plot.
  set_active_load(bus_id: integer*, p_mw: number*)  Set a bus's active load (MW) and recompute. Use this when the request states only an active-power value. This tool has no reactive-power argument: the bus's present reactive load is always left unchanged. If the request also states a reactive-power value, use set_load instead.
  set_load(bus_id: integer*, p_mw: number*, q_mvar: number*)  Set a bus's active and reactive load (MW, Mvar) and recompute. Use this only when the request states both values. If the request states only an active-power value, use set_active_load instead -- do not invent a reactive-power value here to fill this in.

--- round 1 ---
[assistant]   (2527 in / 40 out tokens, 0.9 s)
(no text)
tool_call  run_powerflow()
tool_call  get_status()
[tool run_powerflow]   (gate: pass)
{"case_name": "case14", "converged": true, "bus_voltages": [{"bus_id": 1, "vm_pu": 1.06, "va_deg": 0.0, "is_violation": true, "violation_type": "overvoltage"}, {"bus_id": 2, "vm_pu": 1.0449999999999997, "va_deg": -5.160966232053267, "is_violation": false, "violation_type": null}, {"bus_id": 3, "vm_pu": 1.01, "va_deg": -12.958813127509941, "is_violation": false, "violation_type": null}, {"bus_id": 4, "vm_pu": 1.016780472765977, "va_deg": -10.651156163549766, "is_violation": false, "violation_type": null}, {"bus_id": 5, "vm_pu": 1.0187551889193258, "va_deg": -9.056063987933419, "is_violation": false, "violation_type": null}, {"bus_id": 6, "vm_pu": 1.0700000000000003, "va_deg": -14.617431293826973, "is_violation": true, "violation_type": "overvoltage"}, {"bus_id": 7, "vm_pu": 1.0609157998558956, "va_deg": -13.737671074150992, "is_violation": true, "violation_type": "overvoltage"}, {"bus_id": 8, "vm_pu": 1.0899999999999996, "va_deg": -13.737671074150992, "is_violation": true, "violation_type": "overvoltage"}, {"bus_id": 9, "vm_pu": 1.055142033951695, "va_deg": -15.33696658191659, "is_violation": true, "violation_type": "overvoltage"}, {"bus_id": 10, "vm_pu": 1.0499616681296677, "va_deg": -15.509661675404942, "is_violation": false, "violation_type": null}, {"bus_id": 11, "vm_pu": 1.0563389495503304, "va_deg": -15.196100821087263, "is_violation": true, "violation_type": "overvoltage"}, {"bus_id": 12, "vm_pu": 1.0551537470915544, "va_deg": -15.478237135958645, "is_violation": true, "violation_type": "overvoltage"}, {"bus_id": 13, "vm_pu": 1.0491502754209039, "va_deg": -15.596178415565838, "is_violation": false, "violation_type": null}, {"bus_id": 14, "vm_pu": 1.0336443538344458, "va_deg": -16.5009615140261, "is_violation": false, "violation_type": null}], "line_flows": [{"line_id": 0, "from_bus": 1, "to_bus": 2, "p_from_mw": 162.2782633198512, "q_from_mvar": -21.65620559408434, "loading_percent": 1.5601001340428384, "is_violation": false}, {"line_id": 1, "from_bus": 1, "to_bus": 5, "p_from_mw": 77.84988075723443, "q_from_mvar": 4.014162881568663, "loading_percent": 0.7432858666869775, "is_violation": false}, {"line_id": 2, "from_bus": 2, "to_bus": 3, "p_from_mw": 73.73618560334445, "q_from_mvar": 3.511468774805431, "loading_percent": 0.7141103164852058, "is_violation": false}, {"line_id": 3, "from_bus": 2, "to_bus": 4, "p_from_mw": 57.800643183276776, "q_from_mvar": -1.4164844394965956, "loading_percent": 0.5588709780103251, "is_violation": false}, {"line_id": 4, "from_bus": 2, "to_bus": 5, "p_from_mw": 42.645367228315465, "q_from_mvar": 1.330496731575827, "loading_percent": 0.41389921421628867, "is_violation": false}, {"line_id": 5, "from_bus": 3, "to_bus": 4, "p_from_mw": -22.15441639799123, "q_from_mvar": 4.5101064482348425, "loading_percent": 0.22882738260761823, "is_violation": false}, {"line_id": 6, "from_bus": 4, "to_bus": 5, "p_from_mw": -63.318465122416, "q_from_mvar": 16.258729770779155, "loading_percent": 0.6494313340796147, "is_violation": false}, {"line_id": 7, "from_bus": 6, "to_bus": 11, "p_from_mw": 7.54251088640964, "q_from_mvar": 3.7763163215136544, "loading_percent": 0.07962850976759854, "is_violation": false}, {"line_id": 8, "from_bus": 6, "to_bus": 12, "p_from_mw": 7.830447433253434, "q_from_mvar": 2.4973630493476886, "loading_percent": 0.07758941502277202, "is_violation": false}, {"line_id": 9, "from_bus": 6, "to_bus": 13, "p_from_mw": 18.666596599615882, "q_from_mvar": 7.772347894103692, "loading_percent": 0.1908814287048324, "is_violation": false}, {"line_id": 10, "from_bus": 9, "to_bus": 10, "p_from_mw": 5.59603401728523, "q_from_mvar": 4.367994834651368, "loading_percent": 0.06795908150213374, "is_violation": false}, {"line_id": 11, "from_bus": 9, "to_bus": 14, "p_from_mw": 9.973133736938362, "q_from_mvar": 3.7840496402749912, "loading_percent": 0.10211545570751901, "is_violation": false}, {"line_id": 12, "from_bus": 10, "to_bus": 11, "p_from_mw": -3.9287929268153032, "q_from_mvar": -1.7991968655695838, "loading_percent": 0.041571229122272235, "is_violation": false}, {"line_id": 13, "from_bus": 12, "to_bus": 13, "p_from_mw": 2.090446019018749, "q_from_mvar": 0.8598747471685909, "loading_percent": 0.021638734091953802, "is_violation": false}, {"line_id": 14, "from_bus": 13, "to_bus": 14, "p_from_mw": 5.829251446330228, "q_from_mvar": 1.8502712108167376, "loading_percent": 0.05888223002083942, "is_violation": false}, {"line_id": 100000, "from_bus": 4, "to_bus": 7, "p_from_mw": 28.399413093722963, "q_from_mvar": -9.805891535185024, "loading_percent": 0.29847299342480393, "is_violation": false}, {"line_id": 100001, "from_bus": 4, "to_bus": 9, "p_from_mw": 16.2621074111793, "q_from_mvar": -0.4351195520571272, "loading_percent": 0.16161059817222578, "is_violation": false}, {"line_id": 100002, "from_bus": 5, "to_bus": 6, "p_from_mw": 44.97586007107747, "q_from_mvar": 12.197117580642814, "loading_percent": 0.4620454041286708, "is_violation": false}, {"line_id": 100003, "from_bus": 7, "to_bus": 8, "p_from_mw": 3.957026516949791e-14, "q_from_mvar": -17.51682512577404, "loading_percent": 0.16677820007686248, "is_violation": false}, {"line_id": 100004, "from_bus": 7, "to_bus": 9, "p_from_mw": 28.399413093342847, "q_from_mvar": 5.964493262632221, "loading_percent": 0.27629065583604956, "is_violation": false}], "total_generation_mw": 278.8685383651922, "total_load_mw": 264.7574324416785, "total_loss_mw": 14.11110593018695, "voltage_violations": [{"bus_id": 1, "vm_pu": 1.06, "va_deg": 0.0, "is_violation": true, "violation_type": "overvoltage"}, {"bus_id": 6, "vm_pu": 1.0700000000000003, "va_deg": -14.617431293826973, "is_violation": true, "violation_type": "overvoltage"}, {"bus_id": 7, "vm_pu": 1.0609157998558956, "va_deg": -13.737671074150992, "is_violation": true, "violation_type": "overvoltage"}, {"bus_id": 8, "vm_pu": 1.0899999999999996, "va_deg": -13.737671074150992, "is_violation": true, "violation_type": "overvoltage"}, {"bus_id": 9, "vm_pu": 1.055142033951695, "va_deg": -15.33696658191659, "is_violation": true, "violation_type": "overvoltage"}, {"bus_id": 11, "vm_pu": 1.0563389495503304, "va_deg": -15.196100821087263, "is_violation": true, "violation_type": "overvoltage"}, {"bus_id": 12, "vm_pu": 1.0551537470915544, "va_deg": -15.478237135958645, "is_violation": true, "violation_type": "overvoltage"}], "thermal_violations": [], "summary_text": "", "solver_backend": "pandapower", "llm_prompt": null, "llm_response": null}
[tool get_status]   (gate: not applied)
{"active_case": "case14", "network_info": {"case_name": "case14", "n_buses": 14, "n_generators": 5, "n_lines": 20, "n_loads": 11, "total_load_mw": 264.7574324416785, "total_gen_capacity_mw": 772.4000000000001}, "has_last_result": true, "last_result_summary": {"converged": true, "total_load_mw": 264.7574324416785, "total_generation_mw": 278.8685383651922, "total_loss_mw": 14.11110593018695, "n_voltage_violations": 7, "n_thermal_violations": 0, "solver_backend": "pandapower"}}

--- round 2 ---
[assistant final]   (4868 in / 147 out tokens, 1.9 s)
The power flow has converged successfully. The bus with the lowest voltage magnitude is bus 14, with a voltage of 1.0336 pu.

Key numbers:
- Total load: 264.76 MW
- Total generation: 278.87 MW
- Total losses: 14.11 MW
- Voltage range: 1.0336 pu (bus 14) to 1.0899 pu (bus 8)

Violations:
- There are 7 voltage violations, including overvoltage at buses 1, 6, 7, 8, 9, 11, and 12.

Suggested next step:
Consider running a remedial action analysis to address the voltage violations.
